Version 4
SHEET 1 3300 680
WIRE 1200 -336 1104 -336
WIRE 1296 -336 1200 -336
WIRE 1456 -336 1296 -336
WIRE 1792 -336 1456 -336
WIRE 1920 -336 1792 -336
WIRE 2128 -336 1984 -336
WIRE 2272 -336 2192 -336
WIRE 2336 -336 2272 -336
WIRE 2432 -336 2336 -336
WIRE 2512 -336 2432 -336
WIRE 2656 -336 2512 -336
WIRE 2752 -336 2656 -336
WIRE 2832 -336 2752 -336
WIRE 2928 -336 2832 -336
WIRE 3024 -336 2928 -336
WIRE 3120 -336 3024 -336
WIRE 3216 -336 3120 -336
WIRE 3232 -336 3216 -336
WIRE 1104 -320 1104 -336
WIRE 1200 -304 1200 -336
WIRE 1296 -304 1296 -336
WIRE 2336 -304 2336 -336
WIRE 2432 -304 2432 -336
WIRE 2512 -304 2512 -336
WIRE 2656 -304 2656 -336
WIRE 2752 -304 2752 -336
WIRE 2832 -304 2832 -336
WIRE 2928 -304 2928 -336
WIRE 3024 -304 3024 -336
WIRE 3120 -304 3120 -336
WIRE 3216 -304 3216 -336
WIRE 2144 -256 1984 -256
WIRE 1104 -208 1104 -240
WIRE 1200 -208 1200 -240
WIRE 1296 -208 1296 -240
WIRE 1296 -208 1200 -208
WIRE 2336 -208 2336 -240
WIRE 2432 -208 2432 -240
WIRE 2432 -208 2336 -208
WIRE 2512 -208 2512 -240
WIRE 2512 -208 2432 -208
WIRE 1920 -192 1920 -256
WIRE 1984 -192 1920 -192
WIRE 2144 -192 2144 -256
WIRE 2144 -192 2048 -192
WIRE 2336 -192 2336 -208
WIRE 2656 -192 2656 -224
WIRE 2752 -192 2752 -224
WIRE 2832 -192 2832 -224
WIRE 2928 -192 2928 -224
WIRE 3024 -192 3024 -224
WIRE 3120 -192 3120 -224
WIRE 3216 -192 3216 -224
WIRE 1200 -176 1200 -208
WIRE 1456 -144 1456 -336
WIRE 1920 -128 1920 -192
WIRE 1984 -128 1920 -128
WIRE 2080 -128 2064 -128
WIRE 2144 -128 2144 -192
WIRE 1792 -80 1792 -336
WIRE 1920 -80 1920 -128
WIRE 2144 -64 2144 -128
WIRE 2656 -48 2656 -96
WIRE 2752 -48 2752 -96
WIRE 2752 -48 2656 -48
WIRE 2832 -48 2832 -96
WIRE 2832 -48 2752 -48
WIRE 2928 -48 2928 -96
WIRE 2928 -48 2832 -48
WIRE 3024 -48 3024 -96
WIRE 3024 -48 2928 -48
WIRE 3120 -48 3120 -96
WIRE 3120 -48 3024 -48
WIRE 3216 -48 3216 -96
WIRE 3216 -48 3120 -48
WIRE 1696 -16 1280 -16
WIRE 2048 -16 2016 -16
WIRE 2176 -16 2112 -16
WIRE 2656 0 2656 -48
WIRE 1600 80 1536 80
WIRE 1696 80 1664 80
WIRE 2080 80 2016 80
WIRE 2080 96 2080 80
WIRE 2272 144 2272 -336
WIRE 1456 176 1456 -64
WIRE 1536 176 1536 80
WIRE 1536 176 1456 176
WIRE 1600 176 1536 176
WIRE 1696 176 1680 176
WIRE 2080 176 2016 176
WIRE 1456 272 1456 176
WIRE 1472 272 1456 272
WIRE 1648 272 1616 272
WIRE 1696 272 1648 272
WIRE 2272 272 2272 224
WIRE 2272 272 2016 272
WIRE 1648 288 1648 272
WIRE 2080 288 2080 176
WIRE 2272 288 2272 272
WIRE 1920 352 1920 336
WIRE 1456 384 1456 272
WIRE 1648 384 1648 352
WIRE 1648 384 1456 384
WIRE 1792 384 1792 336
WIRE 1792 384 1648 384
WIRE 2080 384 2080 352
WIRE 2080 384 1792 384
WIRE 2176 384 2176 -16
WIRE 2176 384 2080 384
WIRE 2272 384 2272 368
WIRE 2272 384 2176 384
FLAG 2336 -192 0
FLAG 1104 -208 0
FLAG 3216 -336 OUT
FLAG 1104 -336 IN
FLAG 1920 352 0
FLAG 1200 -176 0
FLAG 2144 -64 0
FLAG 2656 0 0
FLAG 1280 64 0
SYMBOL RES 1696 192 M270
WINDOW 0 32 56 VTop 2
WINDOW 3 0 56 VBottom 2
SYMATTR InstName R1
SYMATTR Value 140k
SYMBOL res 2256 272 R0
SYMATTR InstName R2
SYMATTR Value 15.8K
SYMBOL res 2256 128 R0
SYMATTR InstName R3
SYMATTR Value 1.80Meg
SYMBOL diode 2128 -320 R270
WINDOW 0 32 32 VTop 2
WINDOW 3 0 32 VBottom 2
SYMATTR InstName D1
SYMATTR Value ES1D
SYMATTR Description Schottky diode
SYMATTR Type schottky
SYMBOL polcap 2320 -304 R0
WINDOW 40 27 64 Left 2
WINDOW 3 40 36 Left 2
SYMATTR SpiceLine2 x2
SYMATTR Value 68n
SYMATTR InstName C1
SYMATTR SpiceLine Rser=.1
SYMBOL res 1632 288 M270
WINDOW 0 32 56 VTop 2
WINDOW 3 0 56 VBottom 2
SYMATTR InstName R4
SYMATTR Value 10k
SYMBOL cap 1536 288 M270
WINDOW 0 32 32 VTop 2
WINDOW 3 0 32 VBottom 2
SYMATTR InstName C2
SYMATTR Value 10n
SYMBOL VOLTAGE 1104 -336 R0
WINDOW 123 0 0 Left 0
WINDOW 39 -112 99 Left 2
SYMATTR SpiceLine Rser=3m
SYMATTR InstName V1
SYMATTR Value 5
SYMBOL polcap 2048 -32 M90
WINDOW 0 0 32 VBottom 2
WINDOW 3 32 32 VTop 2
SYMATTR InstName C3
SYMATTR Value 4.7µ
SYMATTR SpiceLine V=10
SYMBOL cap 1664 64 R90
WINDOW 0 0 32 VBottom 2
WINDOW 3 32 32 VTop 2
SYMATTR InstName C4
SYMATTR Value 0.1µ
SYMBOL res 1440 -160 R0
SYMATTR InstName R6
SYMATTR Value 100k
SYMBOL PowerProducts\\LT3957A 1856 128 R0
SYMATTR InstName U1
SYMBOL cap 1632 288 R0
WINDOW 3 19 64 Left 2
SYMATTR Value 100p
SYMATTR InstName C7
SYMBOL res 2064 80 R0
SYMATTR InstName R7
SYMATTR Value 22
SYMBOL cap 2064 288 R0
SYMATTR InstName C8
SYMATTR Value 10n
SYMBOL polcap 1280 -304 R0
WINDOW 40 27 64 Left 2
WINDOW 3 40 36 Left 2
SYMATTR SpiceLine2 x2
SYMATTR Value 100µ
SYMATTR InstName C9
SYMATTR SpiceLine V=6.3 Rser=.1
SYMBOL res 2080 -144 R90
WINDOW 0 0 56 VBottom 2
WINDOW 3 32 56 VTop 2
SYMATTR InstName R8
SYMATTR Value 22
SYMBOL cap 2144 -144 R90
WINDOW 0 0 32 VBottom 2
WINDOW 3 32 32 VTop 2
SYMATTR InstName C5
SYMATTR Value 220p
SYMBOL ind2 1904 -352 R0
WINDOW 0 -26 34 Left 2
WINDOW 3 -51 80 Left 2
SYMATTR InstName L1
SYMATTR Value 10µ
SYMATTR Type ind
SYMBOL ind2 2000 -240 R180
WINDOW 0 -32 80 Left 2
WINDOW 3 -71 32 Left 2
SYMATTR InstName L2
SYMATTR Value 1000µ
SYMATTR Type ind
SYMBOL zener 2048 -208 R90
WINDOW 0 -4 79 VBottom 2
WINDOW 3 -34 -27 VTop 2
SYMATTR InstName D2
SYMATTR Value BZX84B36VLY
SYMATTR Description Diode
SYMATTR Type diode
SYMBOL res 2640 -320 R0
SYMATTR InstName R9
SYMATTR Value 20k
SYMBOL voltage 1280 -32 R0
WINDOW 123 0 0 Left 0
WINDOW 39 0 0 Left 0
SYMATTR InstName V2
SYMATTR Value 1.6
SYMBOL Misc\\neonbulb 2656 -144 R0
SYMATTR InstName U2
SYMATTR Value2 Vstrike=170 Vhold=145
SYMATTR SpiceLine Zon=50K Ihold=3m
SYMBOL Misc\\neonbulb 2752 -144 R0
SYMATTR InstName U3
SYMATTR Value2 Vstrike=170 Vhold=145
SYMATTR SpiceLine Zon=50K Ihold=3m
SYMBOL Misc\\neonbulb 2832 -144 R0
SYMATTR InstName U4
SYMATTR Value2 Vstrike=170 Vhold=145
SYMATTR SpiceLine Zon=50K Ihold=3m
SYMBOL Misc\\neonbulb 2928 -144 R0
SYMATTR InstName U5
SYMATTR Value2 Vstrike=170 Vhold=145
SYMATTR SpiceLine Zon=50K Ihold=3m
SYMBOL Misc\\neonbulb 3024 -144 R0
SYMATTR InstName U6
SYMATTR Value2 Vstrike=170 Vhold=145
SYMATTR SpiceLine Zon=50K Ihold=3m
SYMBOL Misc\\neonbulb 3120 -144 R0
SYMATTR InstName U7
SYMATTR Value2 Vstrike=170 Vhold=145
SYMATTR SpiceLine Zon=50K Ihold=3m
SYMBOL res 2736 -320 R0
SYMATTR InstName R5
SYMATTR Value 20k
SYMBOL res 2816 -320 R0
SYMATTR InstName R10
SYMATTR Value 20k
SYMBOL res 2912 -320 R0
SYMATTR InstName R11
SYMATTR Value 20k
SYMBOL res 3008 -320 R0
SYMATTR InstName R12
SYMATTR Value 20k
SYMBOL res 3104 -320 R0
SYMATTR InstName R13
SYMATTR Value 20k
SYMBOL Misc\\neonbulb 3216 -144 R0
SYMATTR InstName U8
SYMATTR Value2 Vstrike=170 Vhold=145
SYMATTR SpiceLine Zon=50K Ihold=3m
SYMBOL res 3200 -320 R0
SYMATTR InstName R14
SYMATTR Value 20k
SYMBOL cap 2416 -304 R0
SYMATTR InstName C6
SYMATTR Value 470n
SYMATTR SpiceLine V=250
SYMBOL cap 2496 -304 R0
SYMATTR InstName C10
SYMATTR Value 470n
SYMATTR SpiceLine V=250
SYMBOL polcap 1184 -304 R0
WINDOW 3 40 36 Left 2
SYMATTR Value 100µ
SYMATTR InstName C11
SYMATTR SpiceLine V=6.3 Rser=.1
TEXT 1728 432 Left 2 !.tran 25m startup
TEXT 1896 -368 Left 2 !K L1 L2 1
